*Heading
** Job name: VOXEL_MODEL Model name: VOXEL_MODEL
** Generated by: Abaqus/CAE 2017
*Preprint, echo=NO, model=NO, history=NO, contact=NO
**
** PARTS
**
*Part, name=VOXEL_PART
*End Part
**  
**
** ASSEMBLY
**
*Assembly, name=Assembly
**  
*Instance, name=VOXEL_INSTANCE, part=VOXEL_PART
*Node
      1,           0.,           0.
      2, 0.0500000007,           0.
      3,  0.100000001,           0.
      4,  0.150000006,           0.
      5,  0.200000003,           0.
      6,         0.25,           0.
      7,  0.300000012,           0.
      8,  0.349999994,           0.
      9,  0.400000006,           0.
     10,  0.449999988,           0.
     11,          0.5,           0.
     12,  0.550000012,           0.
     13,  0.600000024,           0.
     14,  0.649999976,           0.
     15,  0.699999988,           0.
     16,         0.75,           0.
     17,  0.800000012,           0.
     18,  0.850000024,           0.
     19,  0.899999976,           0.
     20,  0.949999988,           0.
** ... 6541 like lines cut
*Element, type=CPS4
   1,    1,    2,   83,   82
   2,   82,   83,  164,  163
   3,  163,  164,  245,  244
   4,  244,  245,  326,  325
   5,  325,  326,  407,  406
   6,  406,  407,  488,  487
   7,  487,  488,  569,  568
   8,  568,  569,  650,  649
   9,  649,  650,  731,  730
  10,  730,  731,  812,  811
  11,  811,  812,  893,  892
  12,  892,  893,  974,  973
  13,  973,  974, 1055, 1054
  14, 1054, 1055, 1136, 1135
  15, 1135, 1136, 1217, 1216
  16, 1216, 1217, 1298, 1297
  17, 1297, 1298, 1379, 1378
  18, 1378, 1379, 1460, 1459
  19, 1459, 1460, 1541, 1540
  20, 1540, 1541, 1622, 1621
** ... 6380 like lines cut
*Elset, elset=DENSITY_000000000
 1640, 1641, 1718, 1719, 1720, 1721, 1722, 1723, 1797, 1798, 1799, 1800, 1801, 1802, 1803, 1804
 1876, 1877, 1878, 1879, 1880, 1881, 1882, 1883, 1884, 1885, 1955, 1956, 1957, 1958, 1959, 1960
 1961, 1962, 1963, 1964, 1965, 1966, 2035, 2036, 2037, 2038, 2039, 2040, 2041, 2042, 2043, 2044
 2045, 2046, 2114, 2115, 2116, 2117, 2118, 2119, 2120, 2121, 2122, 2123, 2124, 2125, 2126, 2127
 2194, 2195, 2196, 2197, 2198, 2199, 2200, 2201, 2202, 2203, 2204, 2205, 2206, 2207, 2273, 2274
 2275, 2276, 2277, 2278, 2279, 2280, 2281, 2282, 2283, 2284, 2285, 2286, 2287, 2288, 2353, 2354
 2355, 2356, 2357, 2358, 2359, 2360, 2361, 2362, 2363, 2364, 2365, 2366, 2367, 2368, 2433, 2434
 2435, 2436, 2437, 2438, 2439, 2440, 2441, 2442, 2443, 2444, 2445, 2446, 2447, 2448, 2512, 2513
 2514, 2515, 2516, 2517, 2518, 2519, 2520, 2521, 2522, 2523, 2524, 2525, 2526, 2527, 2528, 2529
 2592, 2593, 2594, 2595, 2596, 2597, 2598, 2599, 2600, 2601, 2602, 2603, 2604, 2605, 2606, 2607
 2608, 2609, 2672, 2673, 2674, 2675, 2676, 2677, 2678, 2679, 2680, 2681, 2682, 2683, 2684, 2685
 2686, 2687, 2688, 2689, 2752, 2753, 2754, 2755, 2756, 2757, 2758, 2759, 2760, 2761, 2762, 2763
 2764, 2765, 2766, 2767, 2768, 2769, 2832, 2833, 2834, 2835, 2836, 2837, 2838, 2839, 2840, 2841
 2842, 2843, 2844, 2845, 2846, 2847, 2848, 2849, 2911, 2912, 2913, 2914, 2915, 2916, 2917, 2918
 2919, 2920, 2921, 2922, 2923, 2924, 2925, 2926, 2927, 2928, 2929, 2930, 2991, 2992, 2993, 2994
 2995, 2996, 2997, 2998, 2999, 3000, 3001, 3002, 3003, 3004, 3005, 3006, 3007, 3008, 3009, 3010
 3071, 3072, 3073, 3074, 3075, 3076, 3077, 3078, 3079, 3080, 3081, 3082, 3083, 3084, 3085, 3086
 3087, 3088, 3089, 3090, 3151, 3152, 3153, 3154, 3155, 3156, 3157, 3158, 3159, 3160, 3161, 3162
 3163, 3164, 3165, 3166, 3167, 3168, 3169, 3170, 3231, 3232, 3233, 3234, 3235, 3236, 3237, 3238
 3239, 3240, 3241, 3242, 3243, 3244, 3245, 3246, 3247, 3248, 3249, 3250, 3311, 3312, 3313, 3314
** ... 17 like lines cut
*Elset, elset=DENSITY_025000000
 1639, 1642, 1717, 1724, 1796, 1805, 1875, 1886, 2034, 2047, 2193, 2208, 2432, 2449, 2831, 2850
 3551, 3570, 3952, 3969, 4193, 4208, 4354, 4367, 4515, 4526, 4596, 4605, 4677, 4684, 4759, 4762
*Elset, elset=DENSITY_050000000
 1560, 1561, 1638, 1643, 1954, 1967, 2113, 2128, 2272, 2289, 2352, 2369, 2511, 2530, 2591, 2610
 2671, 2690, 2751, 2770, 2910, 2931, 2990, 3011, 3070, 3091, 3150, 3171, 3230, 3251, 3310, 3331
 3390, 3411, 3470, 3491, 3631, 3650, 3711, 3730, 3791, 3810, 3871, 3890, 4032, 4049, 4112, 4129
 4273, 4288, 4434, 4447, 4758, 4763, 4840, 4841
*Elset, elset=DENSITY_075000000
 1559, 1562, 1637, 1644, 1716, 1725, 1795, 1806, 1874, 1887, 2033, 2048, 2192, 2209, 2431, 2450
 2830, 2851, 3550, 3571, 3951, 3970, 4192, 4209, 4353, 4368, 4514, 4527, 4595, 4606, 4676, 4685
 4757, 4764, 4839, 4842
*Elset, elset=DENSITY_100000000
    1,    2,    3,    4,    5,    6,    7,    8,    9,   10,   11,   12,   13,   14,   15,   16
   17,   18,   19,   20,   21,   22,   23,   24,   25,   26,   27,   28,   29,   30,   31,   32
   33,   34,   35,   36,   37,   38,   39,   40,   41,   42,   43,   44,   45,   46,   47,   48
   49,   50,   51,   52,   53,   54,   55,   56,   57,   58,   59,   60,   61,   62,   63,   64
   65,   66,   67,   68,   69,   70,   71,   72,   73,   74,   75,   76,   77,   78,   79,   80
   81,   82,   83,   84,   85,   86,   87,   88,   89,   90,   91,   92,   93,   94,   95,   96
   97,   98,   99,  100,  101,  102,  103,  104,  105,  106,  107,  108,  109,  110,  111,  112
  113,  114,  115,  116,  117,  118,  119,  120,  121,  122,  123,  124,  125,  126,  127,  128
  129,  130,  131,  132,  133,  134,  135,  136,  137,  138,  139,  140,  141,  142,  143,  144
  145,  146,  147,  148,  149,  150,  151,  152,  153,  154,  155,  156,  157,  158,  159,  160
  161,  162,  163,  164,  165,  166,  167,  168,  169,  170,  171,  172,  173,  174,  175,  176
  177,  178,  179,  180,  181,  182,  183,  184,  185,  186,  187,  188,  189,  190,  191,  192
  193,  194,  195,  196,  197,  198,  199,  200,  201,  202,  203,  204,  205,  206,  207,  208
  209,  210,  211,  212,  213,  214,  215,  216,  217,  218,  219,  220,  221,  222,  223,  224
  225,  226,  227,  228,  229,  230,  231,  232,  233,  234,  235,  236,  237,  238,  239,  240
  241,  242,  243,  244,  245,  246,  247,  248,  249,  250,  251,  252,  253,  254,  255,  256
  257,  258,  259,  260,  261,  262,  263,  264,  265,  266,  267,  268,  269,  270,  271,  272
  273,  274,  275,  276,  277,  278,  279,  280,  281,  282,  283,  284,  285,  286,  287,  288
  289,  290,  291,  292,  293,  294,  295,  296,  297,  298,  299,  300,  301,  302,  303,  304
  305,  306,  307,  308,  309,  310,  311,  312,  313,  314,  315,  316,  317,  318,  319,  320
** ... 336 like lines cut
** Section: SOLID_SECTION_MATERIAL_100000000
*Solid Section, elset=DENSITY_100000000, material=MATERIAL_100000000
,
** Section: SOLID_SECTION_MATERIAL_075000000
*Solid Section, elset=DENSITY_075000000, material=MATERIAL_075000000
,
** Section: SOLID_SECTION_MATERIAL_050000000
*Solid Section, elset=DENSITY_050000000, material=MATERIAL_050000000
,
** Section: SOLID_SECTION_MATERIAL_025000000
*Solid Section, elset=DENSITY_025000000, material=MATERIAL_025000000
,
** Section: SOLID_SECTION_MATERIAL_000000000
*Solid Section, elset=DENSITY_000000000, material=MATERIAL_000000000
,
*End Instance
**  
*Nset, nset=CEILING_DISPLACEMENT, instance=VOXEL_INSTANCE, generate
 6481,  6561,     1
*Nset, nset=FLOOR_PINNED, instance=VOXEL_INSTANCE
 1,
*Nset, nset=FLOOR_Y_SYMMETRY, instance=VOXEL_INSTANCE, generate
  1,  81,   1
*End Assembly
** 
** MATERIALS
** 
*Material, name=MATERIAL_000000000
*Elastic
 0.01, 0.35
*Material, name=MATERIAL_025000000
*Elastic
 0.25, 0.35
*Material, name=MATERIAL_050000000
*Elastic
 0.5, 0.35
*Material, name=MATERIAL_075000000
*Elastic
 0.75, 0.35
*Material, name=MATERIAL_100000000
*Elastic
1., 0.35
** ----------------------------------------------------------------
** 
** STEP: TENSION
** 
*Step, name=TENSION, nlgeom=NO
*Static
1., 1., 1e-05, 1.
** 
** BOUNDARY CONDITIONS
** 
** Name: CEILING_DISPLACEMENT Type: Displacement/Rotation
*Boundary
CEILING_DISPLACEMENT, 2, 2, 4.
** Name: FLOOR_PINNED Type: Symmetry/Antisymmetry/Encastre
*Boundary
FLOOR_PINNED, PINNED
** Name: FLOOR_Y_SYMMETRY Type: Symmetry/Antisymmetry/Encastre
*Boundary
FLOOR_Y_SYMMETRY, YSYMM
** 
** OUTPUT REQUESTS
** 
*Restart, write, frequency=0
** 
** FIELD OUTPUT: F-Output-1, F-Output-TENSION
** 
*Output, field, variable=PRESELECT
** 
** HISTORY OUTPUT: H-Output-1, H-Output-TENSION
** 
*Output, history, variable=PRESELECT
*End Step
